Network_data/Network_model/Feeder1/OpenDSS_Lines.txt
New Line.Feeder1_LINE1 Bus1=secondary Bus2=Feeder1_17 Linecode=3c_240_SAC_XC Length=0.0054737 phases=3 Units=km
New Line.Feeder1_LINE2 Bus1=Feeder1_17 Bus2=Feeder1_148 Linecode=3c_95_SAC_XC Length=0.087992 phases=3 Units=km
New Line.Feeder1_LINE3 Bus1=Feeder1_17 Bus2=Feeder1_22 Linecode=3c_240_SAC_XC Length=0.024771 phases=3 Units=km
New Line.Feeder1_LINE4 Bus1=Feeder1_22 Bus2=Feeder1_184 Linecode=3c_95_SAC_XC Length=0.055818 phases=3 Units=km
New Line.Feeder1_LINE5 Bus1=Feeder1_22 Bus2=Feeder1_86 Linecode=3c_240_SAC_XC Length=0.090204 phases=3 Units=km
New Line.Feeder1_LINE6 Bus1=Feeder1_86 Bus2=Feeder1_90 Linecode=25_SAC_XC Length=0.00061185 phases=3 Units=km
New Line.Feeder1_LINE7 Bus1=Feeder1_86 Bus2=Feeder1_116 Linecode=3c_240_SAC_XC Length=0.0090499 phases=3 Units=km
New Line.Feeder1_LINE8 Bus1=Feeder1_116 Bus2=Feeder1_143 Linecode=3c_95_SAC_XC Length=0.0094596 phases=3 Units=km
New Line.Feeder1_LINE9 Bus1=Feeder1_116 Bus2=Feeder1_137 Linecode=3c_185_SAC_XC Length=0.0021823 phases=3 Units=km
New Line.Feeder1_LINE10 Bus1=Feeder1_137 Bus2=Feeder1_488 Linecode=3c_185_SAC_XC Length=0.087126 phases=3 Units=km
New Line.Feeder1_LINE11 Bus1=Feeder1_137 Bus2=Feeder1_192 Linecode=3c_95_SAC_XC Length=0.0057647 phases=3 Units=km
New Line.Feeder1_LINE12 Bus1=Feeder1_143 Bus2=Feeder1_296 Linecode=35_SAC_XC Length=0.010194 phases=3 Units=km
New Line.Feeder1_LINE13 Bus1=Feeder1_143 Bus2=Feeder1_327 Linecode=35_SAC_XC Length=0.012828 phases=3 Units=km
New Line.Feeder1_LINE14 Bus1=Feeder1_143 Bus2=Feeder1_153 Linecode=3c_95_SAC_XC Length=0.0078704 phases=3 Units=km
New Line.Feeder1_LINE15 Bus1=Feeder1_148 Bus2=Feeder1_159 Linecode=25_SAC_XC Length=0.011688 phases=3 Units=km
New Line.Feeder1_LINE16 Bus1=Feeder1_148 Bus2=Feeder1_160 Linecode=25_SAC_XC Length=0.010345 phases=3 Units=km
New Line.Feeder1_LINE17 Bus1=Feeder1_148 Bus2=Feeder1_161 Linecode=25_SAC_XC Length=0.0097695 phases=3 Units=km
New Line.Feeder1_LINE18 Bus1=Feeder1_148 Bus2=Feeder1_162 Linecode=25_SAC_XC Length=0.0079172 phases=3 Units=km
New Line.Feeder1_LINE19 Bus1=Feeder1_148 Bus2=Feeder1_163 Linecode=25_SAC_XC Length=0.012429 phases=3 Units=km
New Line.Feeder1_LINE20 Bus1=Feeder1_148 Bus2=Feeder1_164 Linecode=25_SAC_XC Length=0.0080822 phases=3 Units=km
New Line.Feeder1_LINE21 Bus1=Feeder1_148 Bus2=Feeder1_165 Linecode=25_SAC_XC Length=0.0069096 phases=3 Units=km
New Line.Feeder1_LINE22 Bus1=Feeder1_148 Bus2=Feeder1_166 Linecode=25_SAC_XC Length=0.0087591 phases=3 Units=km
New Line.Feeder1_LINE23 Bus1=Feeder1_148 Bus2=Feeder1_167 Linecode=25_SAC_XC Length=0.010149 phases=3 Units=km
New Line.Feeder1_LINE24 Bus1=Feeder1_148 Bus2=Feeder1_168 Linecode=25_SAC_XC Length=0.010045 phases=3 Units=km
New Line.Feeder1_LINE25 Bus1=Feeder1_148 Bus2=Feeder1_169 Linecode=25_SAC_XC Length=0.0050122 phases=3 Units=km
New Line.Feeder1_LINE26 Bus1=Feeder1_148 Bus2=Feeder1_170 Linecode=25_SAC_XC Length=0.0092305 phases=3 Units=km
New Line.Feeder1_LINE27 Bus1=Feeder1_148 Bus2=Feeder1_171 Linecode=25_SAC_XC Length=0.0084524 phases=3 Units=km
New Line.Feeder1_LINE28 Bus1=Feeder1_148 Bus2=Feeder1_172 Linecode=25_SAC_XC Length=0.012033 phases=3 Units=km
New Line.Feeder1_LINE29 Bus1=Feeder1_148 Bus2=Feeder1_173 Linecode=25_SAC_XC Length=0.0040227 phases=3 Units=km
New Line.Feeder1_LINE30 Bus1=Feeder1_148 Bus2=Feeder1_174 Linecode=25_SAC_XC Length=0.0066047 phases=3 Units=km
New Line.Feeder1_LINE31 Bus1=Feeder1_148 Bus2=Feeder1_175 Linecode=25_SAC_XC Length=0.0050895 phases=3 Units=km
New Line.Feeder1_LINE32 Bus1=Feeder1_148 Bus2=Feeder1_176 Linecode=25_SAC_XC Length=0.00087321 phases=3 Units=km
New Line.Feeder1_LINE33 Bus1=Feeder1_148 Bus2=Feeder1_177 Linecode=25_SAC_XC Length=0.0064748 phases=3 Units=km
New Line.Feeder1_LINE34 Bus1=Feeder1_148 Bus2=Feeder1_178 Linecode=25_SAC_XC Length=0.0056216 phases=3 Units=km
New Line.Feeder1_LINE35 Bus1=Feeder1_148 Bus2=Feeder1_179 Linecode=25_SAC_XC Length=0.012453 phases=3 Units=km
New Line.Feeder1_LINE36 Bus1=Feeder1_148 Bus2=Feeder1_180 Linecode=25_SAC_XC Length=0.00268 phases=3 Units=km
New Line.Feeder1_LINE37 Bus1=Feeder1_148 Bus2=Feeder1_181 Linecode=25_SAC_XC Length=0.0035132 phases=3 Units=km
New Line.Feeder1_LINE38 Bus1=Feeder1_148 Bus2=Feeder1_182 Linecode=25_SAC_XC Length=0.0094606 phases=3 Units=km
New Line.Feeder1_LINE39 Bus1=Feeder1_148 Bus2=Feeder1_183 Linecode=25_SAC_XC Length=0.011657 phases=3 Units=km
New Line.Feeder1_LINE40 Bus1=Feeder1_153 Bus2=Feeder1_273 Linecode=35_SAC_XC Length=0.012384 phases=3 Units=km
New Line.Feeder1_LINE41 Bus1=Feeder1_153 Bus2=Feeder1_298 Linecode=35_SAC_XC Length=0.015932 phases=3 Units=km
New Line.Feeder1_LINE42 Bus1=Feeder1_153 Bus2=Feeder1_235 Linecode=3c_95_SAC_XC Length=0.013803 phases=3 Units=km
New Line.Feeder1_LINE43 Bus1=Feeder1_184 Bus2=Feeder1_197 Linecode=25_SAC_XC Length=0.011828 phases=3 Units=km
New Line.Feeder1_LINE44 Bus1=Feeder1_184 Bus2=Feeder1_198 Linecode=25_SAC_XC Length=0.014874 phases=3 Units=km
New Line.Feeder1_LINE45 Bus1=Feeder1_184 Bus2=Feeder1_199 Linecode=25_SAC_XC Length=0.017084 phases=3 Units=km
New Line.Feeder1_LINE46 Bus1=Feeder1_184 Bus2=Feeder1_200 Linecode=25_SAC_XC Length=0.012986 phases=3 Units=km
New Line.Feeder1_LINE47 Bus1=Feeder1_184 Bus2=Feeder1_201 Linecode=25_SAC_XC Length=0.011576 phases=3 Units=km
New Line.Feeder1_LINE48 Bus1=Feeder1_184 Bus2=Feeder1_202 Linecode=25_SAC_XC Length=0.022497 phases=3 Units=km
New Line.Feeder1_LINE49 Bus1=Feeder1_184 Bus2=Feeder1_203 Linecode=25_SAC_XC Length=0.010634 phases=3 Units=km
New Line.Feeder1_LINE50 Bus1=Feeder1_184 Bus2=Feeder1_204 Linecode=25_SAC_XC Length=0.0088572 phases=3 Units=km
New Line.Feeder1_LINE51 Bus1=Feeder1_184 Bus2=Feeder1_205 Linecode=25_SAC_XC Length=0.018933 phases=3 Units=km
New Line.Feeder1_LINE52 Bus1=Feeder1_184 Bus2=Feeder1_206 Linecode=25_SAC_XC Length=0.012872 phases=3 Units=km
New Line.Feeder1_LINE53 Bus1=Feeder1_184 Bus2=Feeder1_207 Linecode=25_SAC_XC Length=0.0078632 phases=3 Units=km
New Line.Feeder1_LINE54 Bus1=Feeder1_184 Bus2=Feeder1_208 Linecode=25_SAC_XC Length=0.015372 phases=3 Units=km
New Line.Feeder1_LINE55 Bus1=Feeder1_184 Bus2=Feeder1_209 Linecode=25_SAC_XC Length=0.021368 phases=3 Units=km
New Line.Feeder1_LINE56 Bus1=Feeder1_184 Bus2=Feeder1_210 Linecode=25_SAC_XC Length=0.018205 phases=3 Units=km
New Line.Feeder1_LINE57 Bus1=Feeder1_184 Bus2=Feeder1_211 Linecode=25_SAC_XC Length=0.014098 phases=3 Units=km
New Line.Feeder1_LINE58 Bus1=Feeder1_184 Bus2=Feeder1_212 Linecode=25_SAC_XC Length=0.0086897 phases=3 Units=km
New Line.Feeder1_LINE59 Bus1=Feeder1_184 Bus2=Feeder1_213 Linecode=25_SAC_XC Length=0.0063946 phases=3 Units=km
New Line.Feeder1_LINE60 Bus1=Feeder1_184 Bus2=Feeder1_214 Linecode=25_SAC_XC Length=0.01132 phases=3 Units=km
New Line.Feeder1_LINE61 Bus1=Feeder1_184 Bus2=Feeder1_215 Linecode=25_SAC_XC Length=0.0049265 phases=3 Units=km
New Line.Feeder1_LINE62 Bus1=Feeder1_184 Bus2=Feeder1_216 Linecode=25_SAC_XC Length=0.0216 phases=3 Units=km
New Line.Feeder1_LINE63 Bus1=Feeder1_184 Bus2=Feeder1_217 Linecode=25_SAC_XC Length=0.017675 phases=3 Units=km
New Line.Feeder1_LINE64 Bus1=Feeder1_184 Bus2=Feeder1_218 Linecode=25_SAC_XC Length=0.0055561 phases=3 Units=km
New Line.Feeder1_LINE65 Bus1=Feeder1_184 Bus2=Feeder1_219 Linecode=25_SAC_XC Length=0.0084552 phases=3 Units=km
New Line.Feeder1_LINE66 Bus1=Feeder1_184 Bus2=Feeder1_220 Linecode=25_SAC_XC Length=0.013386 phases=3 Units=km
New Line.Feeder1_LINE67 Bus1=Feeder1_184 Bus2=Feeder1_221 Linecode=25_SAC_XC Length=0.0028724 phases=3 Units=km
New Line.Feeder1_LINE68 Bus1=Feeder1_184 Bus2=Feeder1_222 Linecode=25_SAC_XC Length=0.011407 phases=3 Units=km
New Line.Feeder1_LINE69 Bus1=Feeder1_184 Bus2=Feeder1_223 Linecode=25_SAC_XC Length=0.020346 phases=3 Units=km
New Line.Feeder1_LINE70 Bus1=Feeder1_184 Bus2=Feeder1_224 Linecode=25_SAC_XC Length=0.019272 phases=3 Units=km
New Line.Feeder1_LINE71 Bus1=Feeder1_184 Bus2=Feeder1_225 Linecode=25_SAC_XC Length=0.016272 phases=3 Units=km
New Line.Feeder1_LINE72 Bus1=Feeder1_184 Bus2=Feeder1_226 Linecode=25_SAC_XC Length=0.015433 phases=3 Units=km
New Line.Feeder1_LINE73 Bus1=Feeder1_184 Bus2=Feeder1_227 Linecode=25_SAC_XC Length=0.0094006 phases=3 Units=km
New Line.Feeder1_LINE74 Bus1=Feeder1_184 Bus2=Feeder1_228 Linecode=25_SAC_XC Length=0.090787 phases=3 Units=km
New Line.Feeder1_LINE75 Bus1=Feeder1_184 Bus2=Feeder1_229 Linecode=25_SAC_XC Length=0.077515 phases=3 Units=km
New Line.Feeder1_LINE76 Bus1=Feeder1_192 Bus2=Feeder1_316 Linecode=35_SAC_XC Length=0.013434 phases=3 Units=km
New Line.Feeder1_LINE77 Bus1=Feeder1_192 Bus2=Feeder1_239 Linecode=3c_95_SAC_XC Length=0.0038694 phases=3 Units=km
New Line.Feeder1_LINE78 Bus1=Feeder1_239 Bus2=Feeder1_331 Linecode=35_SAC_XC Length=0.010877 phases=3 Units=km
New Line.Feeder1_LINE79 Bus1=Feeder1_239 Bus2=Feeder1_253 Linecode=3c_95_SAC_XC Length=0.0027908 phases=3 Units=km
New Line.Feeder1_LINE80 Bus1=Feeder1_253 Bus2=Feeder1_332 Linecode=35_SAC_XC Length=0.013715 phases=3 Units=km
New Line.Feeder1_LINE81 Bus1=Feeder1_253 Bus2=Feeder1_279 Linecode=3c_95_SAC_XC Length=0.0051253 phases=3 Units=km
New Line.Feeder1_LINE82 Bus1=Feeder1_279 Bus2=Feeder1_371 Linecode=35_SAC_XC Length=0.013413 phases=3 Units=km
New Line.Feeder1_LINE83 Bus1=Feeder1_279 Bus2=Feeder1_292 Linecode=3c_95_SAC_XC Length=0.005386 phases=3 Units=km
New Line.Feeder1_LINE84 Bus1=Feeder1_292 Bus2=Feeder1_372 Linecode=35_SAC_XC Length=0.01365 phases=3 Units=km
New Line.Feeder1_LINE85 Bus1=Feeder1_292 Bus2=Feeder1_306 Linecode=3c_95_SAC_XC Length=0.0030173 phases=3 Units=km
New Line.Feeder1_LINE86 Bus1=Feeder1_306 Bus2=Feeder1_428 Linecode=35_SAC_XC Length=0.011919 phases=3 Units=km
New Line.Feeder1_LINE87 Bus1=Feeder1_306 Bus2=Feeder1_322 Linecode=3c_95_SAC_XC Length=0.003539 phases=3 Units=km
New Line.Feeder1_LINE88 Bus1=Feeder1_322 Bus2=Feeder1_429 Linecode=35_SAC_XC Length=0.015479 phases=3 Units=km
New Line.Feeder1_LINE89 Bus1=Feeder1_322 Bus2=Feeder1_554 Linecode=3c_95_SAC_XC Length=0.01758 phases=3 Units=km
New Line.Feeder1_LINE90 Bus1=Feeder1_488 Bus2=Feeder1_586 Linecode=35_SAC_XC Length=0.019385 phases=3 Units=km
New Line.Feeder1_LINE91 Bus1=Feeder1_488 Bus2=Feeder1_547 Linecode=35_SAC_XC Length=0.010264 phases=3 Units=km
New Line.Feeder1_LINE92 Bus1=Feeder1_488 Bus2=Feeder1_502 Linecode=3c_185_SAC_XC Length=0.012154 phases=3 Units=km
New Line.Feeder1_LINE93 Bus1=Feeder1_502 Bus2=Feeder1_515 Linecode=25_SAC_XC Length=0.0069423 phases=3 Units=km
New Line.Feeder1_LINE94 Bus1=Feeder1_502 Bus2=Feeder1_741 Linecode=3c_185_SAC_XC Length=0.038223 phases=3 Units=km
New Line.Feeder1_LINE95 Bus1=Feeder1_741 Bus2=Feeder1_795 Linecode=3c_95_XC Length=0.018795 phases=3 Units=km
New Line.Feeder1_LINE96 Bus1=Feeder1_741 Bus2=Feeder1_992 Linecode=3c_95_SAC_ASN Length=0.084203 phases=3 Units=km
New Line.Feeder1_LINE97 Bus1=Feeder1_795 Bus2=Feeder1_799 Linecode=3c_95_XC Length=0.0039461 phases=3 Units=km
New Line.Feeder1_LINE98 Bus1=Feeder1_795 Bus2=Feeder1_841 Linecode=35_SAC_PC Length=0.0087502 phases=3 Units=km
New Line.Feeder1_LINE99 Bus1=Feeder1_799 Bus2=Feeder1_830 Linecode=3c_95_XC Length=0.01859 phases=3 Units=km
New Line.Feeder1_LINE100 Bus1=Feeder1_799 Bus2=Feeder1_904 Linecode=35_SAC_PC Length=0.014973 phases=3 Units=km
New Line.Feeder1_LINE101 Bus1=Feeder1_830 Bus2=Feeder1_846 Linecode=3c_95_XC Length=0.003514 phases=3 Units=km
New Line.Feeder1_LINE102 Bus1=Feeder1_830 Bus2=Feeder1_1402 Linecode=35_SAC_PC Length=0.024297 phases=3 Units=km
New Line.Feeder1_LINE103 Bus1=Feeder1_830 Bus2=Feeder1_1522 Linecode=35_SAC_PC Length=0.023679 phases=3 Units=km
New Line.Feeder1_LINE104 Bus1=Feeder1_841 Bus2=Feeder1_1066 Linecode=35_SAC_PC Length=0.020557 phases=3 Units=km
New Line.Feeder1_LINE105 Bus1=Feeder1_841 Bus2=Feeder1_851 Linecode=35_SAC_PC Length=0.0048124 phases=3 Units=km
New Line.Feeder1_LINE106 Bus1=Feeder1_846 Bus2=Feeder1_922 Linecode=3c_95_XC Length=0.02569 phases=3 Units=km
New Line.Feeder1_LINE107 Bus1=Feeder1_846 Bus2=Feeder1_1224 Linecode=35_SAC_PC Length=0.012439 phases=3 Units=km
New Line.Feeder1_LINE108 Bus1=Feeder1_846 Bus2=Feeder1_1148 Linecode=35_SAC_PC Length=0.015044 phases=3 Units=km
New Line.Feeder1_LINE109 Bus1=Feeder1_904 Bus2=Feeder1_1328 Linecode=35_SAC_PC Length=0.022439 phases=3 Units=km
New Line.Feeder1_LINE110 Bus1=Feeder1_904 Bus2=Feeder1_916 Linecode=35_SAC_PC Length=0.0041041 phases=3 Units=km
New Line.Feeder1_LINE111 Bus1=Feeder1_922 Bus2=Feeder1_934 Linecode=3c_95_XC Length=0.0017052 phases=3 Units=km
New Line.Feeder1_LINE112 Bus1=Feeder1_922 Bus2=Feeder1_1422 Linecode=35_SAC_PC Length=0.0091295 phases=3 Units=km
New Line.Feeder1_LINE113 Bus1=Feeder1_922 Bus2=Feeder1_1635 Linecode=35_SAC_PC Length=0.012182 phases=3 Units=km
New Line.Feeder1_LINE114 Bus1=Feeder1_934 Bus2=Feeder1_1056 Linecode=3c_95_XC Length=0.018945 phases=3 Units=km
New Line.Feeder1_LINE115 Bus1=Feeder1_934 Bus2=Feeder1_1822 Linecode=35_SAC_PC Length=0.027499 phases=3 Units=km
New Line.Feeder1_LINE116 Bus1=Feeder1_934 Bus2=Feeder1_1841 Linecode=35_SAC_PC Length=0.028842 phases=3 Units=km
New Line.Feeder1_LINE117 Bus1=Feeder1_992 Bus2=Feeder1_1109 Linecode=3c_95_SAC_ASN Length=0.016433 phases=3 Units=km
New Line.Feeder1_LINE118 Bus1=Feeder1_992 Bus2=Feeder1_1627 Linecode=25_SAC_PC Length=0.0153 phases=3 Units=km
New Line.Feeder1_LINE119 Bus1=Feeder1_992 Bus2=Feeder1_1236 Linecode=25_SAC_PC Length=0.006084 phases=3 Units=km
New Line.Feeder1_LINE120 Bus1=Feeder1_1056 Bus2=Feeder1_2108 Linecode=35_SAC_PC Length=0.030972 phases=3 Units=km
New Line.Feeder1_LINE121 Bus1=Feeder1_1056 Bus2=Feeder1_1888 Linecode=35_SAC_PC Length=0.014139 phases=3 Units=km
New Line.Feeder1_LINE122 Bus1=Feeder1_1056 Bus2=Feeder1_1889 Linecode=35_SAC_PC Length=0.019313 phases=3 Units=km
New Line.Feeder1_LINE123 Bus1=Feeder1_1109 Bus2=Feeder1_1739 Linecode=3c_95_SAC_ASN Length=0.036816 phases=3 Units=km
New Line.Feeder1_LINE124 Bus1=Feeder1_1109 Bus2=Feeder1_1740 Linecode=35_SAC_PC Length=0.027508 phases=3 Units=km
New Line.Feeder1_LINE125 Bus1=Feeder1_1109 Bus2=Feeder1_1661 Linecode=35_SAC_PC Length=0.024358 phases=3 Units=km
New Line.Feeder1_LINE126 Bus1=Feeder1_1109 Bus2=Feeder1_1663 Linecode=35_SAC_PC Length=0.014538 phases=3 Units=km
New Line.Feeder1_LINE127 Bus1=Feeder1_1109 Bus2=Feeder1_1458 Linecode=35_SAC_PC Length=0.022928 phases=3 Units=km
New Line.Feeder1_LINE128 Bus1=Feeder1_1148 Bus2=Feeder1_1564 Linecode=35_SAC_PC Length=0.023368 phases=3 Units=km
New Line.Feeder1_LINE129 Bus1=Feeder1_1148 Bus2=Feeder1_1174 Linecode=35_SAC_PC Length=0.0035432 phases=3 Units=km
New Line.Feeder1_LINE130 Bus1=Feeder1_1224 Bus2=Feeder1_1673 Linecode=35_SAC_PC Length=0.023547 phases=3 Units=km
New Line.Feeder1_LINE131 Bus1=Feeder1_1224 Bus2=Feeder1_1251 Linecode=35_SAC_PC Length=0.004973 phases=3 Units=km
New Line.Feeder1_LINE132 Bus1=Feeder1_1236 Bus2=Feeder1_1647 Linecode=25_SAC_PC Length=0.022905 phases=3 Units=km
New Line.Feeder1_LINE133 Bus1=Feeder1_1236 Bus2=Feeder1_1263 Linecode=25_SAC_PC Length=0.0052817 phases=3 Units=km
New Line.Feeder1_LINE134 Bus1=Feeder1_1402 Bus2=Feeder1_1723 Linecode=35_SAC_PC Length=0.023245 phases=3 Units=km
New Line.Feeder1_LINE135 Bus1=Feeder1_1402 Bus2=Feeder1_1427 Linecode=35_SAC_PC Length=0.0046202 phases=3 Units=km
New Line.Feeder1_LINE136 Bus1=Feeder1_1422 Bus2=Feeder1_1806 Linecode=35_SAC_PC Length=0.021503 phases=3 Units=km
New Line.Feeder1_LINE137 Bus1=Feeder1_1422 Bus2=Feeder1_1448 Linecode=35_SAC_PC Length=0.0062647 phases=3 Units=km
New Line.Feeder1_LINE138 Bus1=Feeder1_1458 Bus2=Feeder1_1762 Linecode=35_SAC_PC Length=0.02233 phases=3 Units=km
New Line.Feeder1_LINE139 Bus1=Feeder1_1458 Bus2=Feeder1_1483 Linecode=35_SAC_PC Length=0.0040242 phases=3 Units=km
New Line.Feeder1_LINE140 Bus1=Feeder1_1522 Bus2=Feeder1_1843 Linecode=35_SAC_PC Length=0.021757 phases=3 Units=km
New Line.Feeder1_LINE141 Bus1=Feeder1_1522 Bus2=Feeder1_1545 Linecode=35_SAC_PC Length=0.0049826 phases=3 Units=km
New Line.Feeder1_LINE142 Bus1=Feeder1_1627 Bus2=Feeder1_1961 Linecode=25_SAC_PC Length=0.025362 phases=3 Units=km
New Line.Feeder1_LINE143 Bus1=Feeder1_1627 Bus2=Feeder1_1646 Linecode=25_SAC_PC Length=0.003321 phases=3 Units=km
New Line.Feeder1_LINE144 Bus1=Feeder1_1635 Bus2=Feeder1_2016 Linecode=35_SAC_PC Length=0.021827 phases=3 Units=km
New Line.Feeder1_LINE145 Bus1=Feeder1_1635 Bus2=Feeder1_1655 Linecode=35_SAC_PC Length=0.0055519 phases=3 Units=km
New Line.Feeder1_LINE146 Bus1=Feeder1_1661 Bus2=Feeder1_1999 Linecode=35_SAC_PC Length=0.020479 phases=3 Units=km
New Line.Feeder1_LINE147 Bus1=Feeder1_1661 Bus2=Feeder1_1679 Linecode=35_SAC_PC Length=0.0040163 phases=3 Units=km
New Line.Feeder1_LINE148 Bus1=Feeder1_1663 Bus2=Feeder1_1900 Linecode=35_SAC_PC Length=0.020801 phases=3 Units=km
New Line.Feeder1_LINE149 Bus1=Feeder1_1663 Bus2=Feeder1_1682 Linecode=35_SAC_PC Length=0.005221 phases=3 Units=km
New Line.Feeder1_LINE150 Bus1=Feeder1_1739 Bus2=Feeder1_2354 Linecode=35_SAC_PC Length=0.028242 phases=3 Units=km
New Line.Feeder1_LINE151 Bus1=Feeder1_1739 Bus2=Feeder1_2124 Linecode=35_SAC_PC Length=0.025751 phases=3 Units=km
New Line.Feeder1_LINE152 Bus1=Feeder1_1739 Bus2=Feeder1_2159 Linecode=35_SAC_PC Length=0.037274 phases=3 Units=km
New Line.Feeder1_LINE153 Bus1=Feeder1_1739 Bus2=Feeder1_2127 Linecode=3c_95_SAC_ASN Length=0.028783 phases=3 Units=km
New Line.Feeder1_LINE154 Bus1=Feeder1_1739 Bus2=Feeder1_2062 Linecode=35_SAC_PC Length=0.013581 phases=3 Units=km
New Line.Feeder1_LINE155 Bus1=Feeder1_1740 Bus2=Feeder1_1986 Linecode=35_SAC_PC Length=0.024093 phases=3 Units=km
New Line.Feeder1_LINE156 Bus1=Feeder1_1740 Bus2=Feeder1_1759 Linecode=35_SAC_PC Length=0.0032425 phases=3 Units=km
New Line.Feeder1_LINE157 Bus1=Feeder1_1822 Bus2=Feeder1_2324 Linecode=35_SAC_PC Length=0.020864 phases=3 Units=km
New Line.Feeder1_LINE158 Bus1=Feeder1_1822 Bus2=Feeder1_1840 Linecode=35_SAC_PC Length=0.0044295 phases=3 Units=km
New Line.Feeder1_LINE159 Bus1=Feeder1_1841 Bus2=Feeder1_2091 Linecode=35_SAC_PC Length=0.022302 phases=3 Units=km
New Line.Feeder1_LINE160 Bus1=Feeder1_1841 Bus2=Feeder1_1859 Linecode=35_SAC_PC Length=0.0049477 phases=3 Units=km
New Line.Feeder1_LINE161 Bus1=Feeder1_1888 Bus2=Feeder1_2289 Linecode=35_SAC_PC Length=0.021054 phases=3 Units=km
New Line.Feeder1_LINE162 Bus1=Feeder1_1888 Bus2=Feeder1_1905 Linecode=35_SAC_PC Length=0.007084 phases=3 Units=km
New Line.Feeder1_LINE163 Bus1=Feeder1_1889 Bus2=Feeder1_2290 Linecode=35_SAC_PC Length=0.021503 phases=3 Units=km
New Line.Feeder1_LINE164 Bus1=Feeder1_1889 Bus2=Feeder1_1907 Linecode=35_SAC_PC Length=0.0050222 phases=3 Units=km
New Line.Feeder1_LINE165 Bus1=Feeder1_2062 Bus2=Feeder1_2265 Linecode=35_SAC_PC Length=0.02575 phases=3 Units=km
New Line.Feeder1_LINE166 Bus1=Feeder1_2062 Bus2=Feeder1_2075 Linecode=35_SAC_PC Length=0.0067889 phases=3 Units=km
New Line.Feeder1_LINE167 Bus1=Feeder1_2108 Bus2=Feeder1_2465 Linecode=35_SAC_PC Length=0.02198 phases=3 Units=km
New Line.Feeder1_LINE168 Bus1=Feeder1_2108 Bus2=Feeder1_2119 Linecode=35_SAC_PC Length=0.0045461 phases=3 Units=km
New Line.Feeder1_LINE169 Bus1=Feeder1_2124 Bus2=Feeder1_2282 Linecode=35_SAC_PC Length=0.025937 phases=3 Units=km
New Line.Feeder1_LINE170 Bus1=Feeder1_2124 Bus2=Feeder1_2135 Linecode=35_SAC_PC Length=0.0049222 phases=3 Units=km
New Line.Feeder1_LINE171 Bus1=Feeder1_2127 Bus2=Feeder1_2302 Linecode=35_SAC_PC Length=0.010647 phases=3 Units=km
New Line.Feeder1_LINE172 Bus1=Feeder1_2127 Bus2=Feeder1_2139 Linecode=3c_95_SAC_ASN Length=0.0016976 phases=3 Units=km
New Line.Feeder1_LINE173 Bus1=Feeder1_2139 Bus2=Feeder1_2339 Linecode=3c_95_SAC_XC Length=0.036361 phases=3 Units=km
New Line.Feeder1_LINE174 Bus1=Feeder1_2139 Bus2=Feeder1_2252 Linecode=3c_95_SAC_ASN Length=0.013727 phases=3 Units=km
New Line.Feeder1_LINE175 Bus1=Feeder1_2159 Bus2=Feeder1_2318 Linecode=35_SAC_PC Length=0.02102 phases=3 Units=km
New Line.Feeder1_LINE176 Bus1=Feeder1_2159 Bus2=Feeder1_2172 Linecode=35_SAC_PC Length=0.004934 phases=3 Units=km
New Line.Feeder1_LINE177 Bus1=Feeder1_2252 Bus2=Feeder1_2746 Linecode=35_SAC_PC Length=0.024945 phases=3 Units=km
New Line.Feeder1_LINE178 Bus1=Feeder1_2252 Bus2=Feeder1_2464 Linecode=35_SAC_PC Length=0.011819 phases=3 Units=km
New Line.Feeder1_LINE179 Bus1=Feeder1_2302 Bus2=Feeder1_2454 Linecode=35_SAC_PC Length=0.025572 phases=3 Units=km
New Line.Feeder1_LINE180 Bus1=Feeder1_2302 Bus2=Feeder1_2311 Linecode=35_SAC_PC Length=0.0042854 phases=3 Units=km
New Line.Feeder1_LINE181 Bus1=Feeder1_2339 Bus2=Feeder1_2346 Linecode=3c_95_SAC_XC Length=0.00097046 phases=3 Units=km
New Line.Feeder1_LINE182 Bus1=Feeder1_2339 Bus2=Feeder1_2681 Linecode=35_SAC_PC Length=0.032969 phases=3 Units=km
New Line.Feeder1_LINE183 Bus1=Feeder1_2339 Bus2=Feeder1_2542 Linecode=35_SAC_PC Length=0.021159 phases=3 Units=km
New Line.Feeder1_LINE184 Bus1=Feeder1_2346 Bus2=Feeder1_2390 Linecode=3c_95_SAC_XC Length=0.0058053 phases=3 Units=km
New Line.Feeder1_LINE185 Bus1=Feeder1_2346 Bus2=Feeder1_2578 Linecode=35_SAC_PC Length=0.028936 phases=3 Units=km
New Line.Feeder1_LINE186 Bus1=Feeder1_2354 Bus2=Feeder1_2511 Linecode=35_SAC_PC Length=0.025849 phases=3 Units=km
New Line.Feeder1_LINE187 Bus1=Feeder1_2354 Bus2=Feeder1_2366 Linecode=35_SAC_PC Length=0.0054571 phases=3 Units=km
New Line.Feeder1_LINE188 Bus1=Feeder1_2390 Bus2=Feeder1_2523 Linecode=35_SAC_PC Length=0.020859 phases=3 Units=km
New Line.Feeder1_LINE189 Bus1=Feeder1_2390 Bus2=Feeder1_2663 Linecode=35_SAC_PC Length=0.015037 phases=3 Units=km
New Line.Feeder1_LINE190 Bus1=Feeder1_2390 Bus2=Feeder1_2503 Linecode=3c_95_SAC_XC Length=0.021848 phases=3 Units=km
New Line.Feeder1_LINE191 Bus1=Feeder1_2390 Bus2=Feeder1_2551 Linecode=35_SAC_PC Length=0.013974 phases=3 Units=km
New Line.Feeder1_LINE192 Bus1=Feeder1_2464 Bus2=Feeder1_2696 Linecode=35_SAC_PC Length=0.022668 phases=3 Units=km
New Line.Feeder1_LINE193 Bus1=Feeder1_2464 Bus2=Feeder1_2477 Linecode=35_SAC_PC Length=0.0065719 phases=3 Units=km
New Line.Feeder1_LINE194 Bus1=Feeder1_2503 Bus2=Feeder1_2676 Linecode=35_SAC_PC Length=0.0082145 phases=3 Units=km
New Line.Feeder1_LINE195 Bus1=Feeder1_2503 Bus2=Feeder1_2526 Linecode=3c_95_SAC_XC Length=0.012805 phases=3 Units=km
New Line.Feeder1_LINE196 Bus1=Feeder1_2523 Bus2=Feeder1_2673 Linecode=35_SAC_PC Length=0.0246 phases=3 Units=km
New Line.Feeder1_LINE197 Bus1=Feeder1_2523 Bus2=Feeder1_2534 Linecode=35_SAC_PC Length=0.0032684 phases=3 Units=km
New Line.Feeder1_LINE198 Bus1=Feeder1_2526 Bus2=Feeder1_2699 Linecode=35_SAC_PC Length=0.010233 phases=3 Units=km
New Line.Feeder1_LINE199 Bus1=Feeder1_2526 Bus2=Feeder1_2758 Linecode=3c_95_SAC_XC Length=0.033085 phases=3 Units=km
New Line.Feeder1_LINE200 Bus1=Feeder1_2542 Bus2=Feeder1_2752 Linecode=35_SAC_PC Length=0.0207 phases=3 Units=km
New Line.Feeder1_LINE201 Bus1=Feeder1_2542 Bus2=Feeder1_2555 Linecode=35_SAC_PC Length=0.0073322 phases=3 Units=km
New Line.Feeder1_LINE202 Bus1=Feeder1_2551 Bus2=Feeder1_2711 Linecode=35_SAC_PC Length=0.025777 phases=3 Units=km
New Line.Feeder1_LINE203 Bus1=Feeder1_2551 Bus2=Feeder1_2565 Linecode=35_SAC_PC Length=0.004204 phases=3 Units=km
New Line.Feeder1_LINE204 Bus1=Feeder1_2578 Bus2=Feeder1_2736 Linecode=35_SAC_PC Length=0.025032 phases=3 Units=km
New Line.Feeder1_LINE205 Bus1=Feeder1_2578 Bus2=Feeder1_2591 Linecode=35_SAC_PC Length=0.0028255 phases=3 Units=km
New Line.Feeder1_LINE206 Bus1=Feeder1_2663 Bus2=Feeder1_3004 Linecode=35_SAC_PC Length=0.029655 phases=3 Units=km
New Line.Feeder1_LINE207 Bus1=Feeder1_2663 Bus2=Feeder1_2675 Linecode=35_SAC_PC Length=0.0037398 phases=3 Units=km
New Line.Feeder1_LINE208 Bus1=Feeder1_2676 Bus2=Feeder1_2857 Linecode=35_SAC_PC Length=0.020409 phases=3 Units=km
New Line.Feeder1_LINE209 Bus1=Feeder1_2676 Bus2=Feeder1_2687 Linecode=35_SAC_PC Length=0.0049765 phases=3 Units=km
New Line.Feeder1_LINE210 Bus1=Feeder1_2681 Bus2=Feeder1_2836 Linecode=35_SAC_PC Length=0.022373 phases=3 Units=km
New Line.Feeder1_LINE211 Bus1=Feeder1_2681 Bus2=Feeder1_2693 Linecode=35_SAC_PC Length=0.0041736 phases=3 Units=km
New Line.Feeder1_LINE212 Bus1=Feeder1_2699 Bus2=Feeder1_2979 Linecode=35_SAC_PC Length=0.021714 phases=3 Units=km
New Line.Feeder1_LINE213 Bus1=Feeder1_2699 Bus2=Feeder1_2709 Linecode=35_SAC_PC Length=0.0048957 phases=3 Units=km
New Line.Feeder1_LINE214 Bus1=Feeder1_2746 Bus2=Feeder1_2873 Linecode=35_SAC_PC Length=0.021701 phases=3 Units=km
New Line.Feeder1_LINE215 Bus1=Feeder1_2746 Bus2=Feeder1_2754 Linecode=35_SAC_PC Length=0.0069125 phases=3 Units=km
New Line.Feeder1_LINE216 Bus1=Feeder1_2758 Bus2=Feeder1_2771 Linecode=3c_95_SAC_XC Length=0.0028578 phases=3 Units=km
New Line.Feeder1_LINE217 Bus1=Feeder1_2758 Bus2=Feeder1_2881 Linecode=35_SAC_PC Length=0.0080544 phases=3 Units=km
New Line.Feeder1_LINE218 Bus1=Feeder1_2771 Bus2=Feeder1_2859 Linecode=35_SAC_PC Length=0.011127 phases=3 Units=km
New Line.Feeder1_LINE219 Bus1=Feeder1_2771 Bus2=Feeder1_2896 Linecode=35_SAC_PC Length=0.017699 phases=3 Units=km
New Line.Feeder1_LINE220 Bus1=Feeder1_2771 Bus2=Feeder1_2834 Linecode=3c_95_SAC_XC Length=0.016335 phases=3 Units=km
New Line.Feeder1_LINE221 Bus1=Feeder1_2834 Bus2=Feeder1_2907 Linecode=35_SAC_PC Length=0.010831 phases=3 Units=km
New Line.Feeder1_LINE222 Bus1=Feeder1_2834 Bus2=Feeder1_2927 Linecode=3c_95_SAC_XC Length=0.012247 phases=3 Units=km
New Line.Feeder1_LINE223 Bus1=Feeder1_2859 Bus2=Feeder1_3026 Linecode=35_SAC_PC Length=0.02208 phases=3 Units=km
New Line.Feeder1_LINE224 Bus1=Feeder1_2859 Bus2=Feeder1_2914 Linecode=35_SAC_PC Length=0.0065888 phases=3 Units=km
New Line.Feeder1_LINE225 Bus1=Feeder1_2881 Bus2=Feeder1_3117 Linecode=35_SAC_PC Length=0.024498 phases=3 Units=km
New Line.Feeder1_LINE226 Bus1=Feeder1_2881 Bus2=Feeder1_2891 Linecode=35_SAC_PC Length=0.006145 phases=3 Units=km
New Line.Feeder1_LINE227 Bus1=Feeder1_2896 Bus2=Feeder1_3070 Linecode=35_SAC_PC Length=0.028724 phases=3 Units=km
New Line.Feeder1_LINE228 Bus1=Feeder1_2896 Bus2=Feeder1_2906 Linecode=35_SAC_PC Length=0.0029741 phases=3 Units=km
New Line.Feeder1_LINE229 Bus1=Feeder1_2907 Bus2=Feeder1_3138 Linecode=35_SAC_PC Length=0.028243 phases=3 Units=km
New Line.Feeder1_LINE230 Bus1=Feeder1_2907 Bus2=Feeder1_2917 Linecode=35_SAC_PC Length=0.0048446 phases=3 Units=km
New Line.Feeder1_LINE231 Bus1=Feeder1_2927 Bus2=Feeder1_3072 Linecode=35_SAC_PC Length=0.014521 phases=3 Units=km
New Line.Feeder1_LINE232 Bus1=Feeder1_2927 Bus2=Feeder1_2976 Linecode=3c_95_SAC_XC Length=0.0071092 phases=3 Units=km
New Line.Feeder1_LINE233 Bus1=Feeder1_2976 Bus2=Feeder1_3054 Linecode=35_SAC_PC Length=0.013332 phases=3 Units=km
New Line.Feeder1_LINE234 Bus1=Feeder1_2976 Bus2=Feeder1_3080 Linecode=35_SAC_PC Length=0.015318 phases=3 Units=km
New Line.Feeder1_LINE235 Bus1=Feeder1_3054 Bus2=Feeder1_3140 Linecode=35_SAC_PC Length=0.02456 phases=3 Units=km
New Line.Feeder1_LINE236 Bus1=Feeder1_3054 Bus2=Feeder1_3061 Linecode=35_SAC_PC Length=0.0038644 phases=3 Units=km
New Line.Feeder1_LINE237 Bus1=Feeder1_3072 Bus2=Feeder1_3155 Linecode=35_SAC_PC Length=0.02356 phases=3 Units=km
New Line.Feeder1_LINE238 Bus1=Feeder1_3072 Bus2=Feeder1_3078 Linecode=35_SAC_PC Length=0.0039706 phases=3 Units=km
New Line.Feeder1_LINE239 Bus1=Feeder1_3080 Bus2=Feeder1_3153 Linecode=35_SAC_PC Length=0.023885 phases=3 Units=km
New Line.Feeder1_LINE240 Bus1=Feeder1_3080 Bus2=Feeder1_3086 Linecode=35_SAC_PC Length=0.0037609 phases=3 Units=km
